*PCB_Project1
*WEBENCH Simulation Engine (D1.41) Netlist generated by Advanced Sim server on 7.03.2018 12:30:02

*Schematic Netlist:
C14 NetC14_1 VDD_ISO1 100pF CAP
C15 GND_ISO1 NetC15_2 100pF CAP
C16 VDD_1 0 100pF CAP
R16 VDD_ISO1 NetR16_2 1K
R17 NetC15_2 NetR17_2 1K

*Models and Subcircuits:
.MODEL CAP C()

