*Free Documents
*WEBENCH Simulation Engine (D1.41) Netlist generated by Advanced Sim server on 5.03.2018 02:39:46

*Schematic Netlist:
C1 GND_1 VDD_1 1uF CAP
C2 VDD_ISO1 GND_ISO1 1uF CAP
R1 NetR1_1 NetR1_2 1.4M
R2 NetR2_1 NetR1_1 1K
R? OUT NetR?_2 1K
R? NetR?_1 NetR?_2 1K
R? NetR?_1 NetR?_2 1K

*Models and Subcircuits:
.MODEL CAP C()

